
**** 05/15/20 13:23:52 ******* PSpice Lite (March 2016) ******* ID# 10813 ****

 ** Profile: "SCHEMATIC1-Application11"  [ C:\Users\seongjun\Desktop\Program\Pspice\Application11-PSpiceFiles\SCHEMATIC1\Application1


 ****     CIRCUIT DESCRIPTION


******************************************************************************




** Creating circuit file "Application11.cir" 
** WARNING: THIS AUTOMATICALLY GENERATED FILE MAY BE OVERWRITTEN BY SUBSEQUENT SIMULATIONS

*Libraries: 
* Profile Libraries :
* Local Libraries :
* From [PSPICE NETLIST] section of C:\Users\seongjun\AppData\Roaming\SPB_Data\cdssetup\OrCAD_PSpice\17.2.0\PSpice.ini file:
.lib "nomd.lib" 

*Analysis directives: 
.TRAN  0 100ms 0 10u 
.OPTIONS ADVCONV
.PROBE64 V(alias(*)) I(alias(*)) W(alias(*)) D(alias(*)) NOISE(alias(*)) 
.INC "..\SCHEMATIC1.net" 



**** INCLUDING SCHEMATIC1.net ****
* source APPLICATION11
C_C1         N00345 N00297  100uF  TC=0,0 
L_L1         N00285 N00528  1mH  
V_V1         N00285 0  AC 311
+SIN 0 311 60 0 0 0
R_R2         N00528 N00297  10 TC=0,0 
R_R3         0 N00532  5 TC=0,0 
R_R4         N00532 N00528  10 TC=0,0 
L_L2         N00532 N00345  10mH  

**** RESUMING Application11.cir ****
.END

**** 05/15/20 13:23:52 ******* PSpice Lite (March 2016) ******* ID# 10813 ****

 ** Profile: "SCHEMATIC1-Application11"  [ C:\Users\seongjun\Desktop\Program\Pspice\Application11-PSpiceFiles\SCHEMATIC1\Application1


 ****     INITIAL TRANSIENT SOLUTION       TEMPERATURE =   27.000 DEG C


******************************************************************************



 NODE   VOLTAGE     NODE   VOLTAGE     NODE   VOLTAGE     NODE   VOLTAGE


(N00285)    0.0000 (N00297)    0.0000 (N00345)    0.0000 (N00528)    0.0000     

(N00532)    0.0000 




    VOLTAGE SOURCE CURRENTS
    NAME         CURRENT

    V_V1         0.000E+00

    TOTAL POWER DISSIPATION   0.00E+00  WATTS



          JOB CONCLUDED

**** 05/15/20 13:23:52 ******* PSpice Lite (March 2016) ******* ID# 10813 ****

 ** Profile: "SCHEMATIC1-Application11"  [ C:\Users\seongjun\Desktop\Program\Pspice\Application11-PSpiceFiles\SCHEMATIC1\Application1


 ****     JOB STATISTICS SUMMARY


******************************************************************************



  Total job time (using Solver 1)   =        1.45
