
**** 05/15/20 12:35:41 ******* PSpice Lite (March 2016) ******* ID# 10813 ****

 ** Profile: "SCHEMATIC1-Application9_RCL_ACcircuit"  [ C:\Users\seongjun\Desktop\Program\Pspice\application9_rcl_accircuit-pspicefil


 ****     CIRCUIT DESCRIPTION


******************************************************************************




** Creating circuit file "Application9_RCL_ACcircuit.cir" 
** WARNING: THIS AUTOMATICALLY GENERATED FILE MAY BE OVERWRITTEN BY SUBSEQUENT SIMULATIONS

*Libraries: 
* Profile Libraries :
* Local Libraries :
* From [PSPICE NETLIST] section of C:\Users\seongjun\AppData\Roaming\SPB_Data\cdssetup\OrCAD_PSpice\17.2.0\PSpice.ini file:
.lib "nomd.lib" 

*Analysis directives: 
.TRAN  0 2ms 0 10u 
.OPTIONS ADVCONV
.PROBE64 V(alias(*)) I(alias(*)) W(alias(*)) D(alias(*)) NOISE(alias(*)) 
.INC "..\SCHEMATIC1.net" 



**** INCLUDING SCHEMATIC1.net ****
* source APPLICATION9_RCL_ACCIRCUIT
V_V1         N00142 0  AC 10
+SIN 0 10 1000 0 0 0
R_R1         0 N00142  10 TC=0,0 
V_V2         N00257 0  AC 10
+SIN 0 10 1000 0 0 0
V_V3         N00411 0  AC 10
+SIN 0 10 1000 0 0 0
R_R4         N01560 N00568  10 TC=0,0 
V_V4         N00568 0  AC 10
+SIN 0 10 1000 0 0 0
R_R5         N007761 N00728  10 TC=0,0 
V_V5         N00728 0  AC 10
+SIN 0 10 1000 0 0 0
C_C1         0 N00257  17uF  TC=0,0 
L_L1         N00471 N00411  1.7mH  
R_R6         0 N00471  0.001n TC=0,0 
C_C2         0 N01560  17uF  TC=0,0 
L_L2         0 N007761  10uH  

**** RESUMING Application9_RCL_ACcircuit.cir ****
.END

**** 05/15/20 12:35:41 ******* PSpice Lite (March 2016) ******* ID# 10813 ****

 ** Profile: "SCHEMATIC1-Application9_RCL_ACcircuit"  [ C:\Users\seongjun\Desktop\Program\Pspice\application9_rcl_accircuit-pspicefil


 ****     INITIAL TRANSIENT SOLUTION       TEMPERATURE =   27.000 DEG C


******************************************************************************



 NODE   VOLTAGE     NODE   VOLTAGE     NODE   VOLTAGE     NODE   VOLTAGE


(N00142)    0.0000 (N00257)    0.0000 (N00411)    0.0000 (N00471)    0.0000     

(N00568)    0.0000 (N00728)    0.0000 (N01560)    0.0000 (N007761)    0.0000    




    VOLTAGE SOURCE CURRENTS
    NAME         CURRENT

    V_V1         0.000E+00
    V_V2         0.000E+00
    V_V3         0.000E+00
    V_V4         0.000E+00
    V_V5         0.000E+00

    TOTAL POWER DISSIPATION   0.00E+00  WATTS



          JOB CONCLUDED

**** 05/15/20 12:35:41 ******* PSpice Lite (March 2016) ******* ID# 10813 ****

 ** Profile: "SCHEMATIC1-Application9_RCL_ACcircuit"  [ C:\Users\seongjun\Desktop\Program\Pspice\application9_rcl_accircuit-pspicefil


 ****     JOB STATISTICS SUMMARY


******************************************************************************



  Total job time (using Solver 1)   =         .06
