
**** 05/15/20 14:50:09 ******* PSpice Lite (March 2016) ******* ID# 10813 ****

 ** Profile: "SCHEMATIC1-Application13"  [ C:\Users\seongjun\Desktop\Program\Pspice\Application13-PSpiceFiles\SCHEMATIC1\Application1


 ****     CIRCUIT DESCRIPTION


******************************************************************************




** Creating circuit file "Application13.cir" 
** WARNING: THIS AUTOMATICALLY GENERATED FILE MAY BE OVERWRITTEN BY SUBSEQUENT SIMULATIONS

*Libraries: 
* Profile Libraries :
* Local Libraries :
* From [PSPICE NETLIST] section of C:\Users\seongjun\AppData\Roaming\SPB_Data\cdssetup\OrCAD_PSpice\17.2.0\PSpice.ini file:
.lib "nomd.lib" 

*Analysis directives: 
.AC DEC 1000 1k 100k
.OPTIONS ADVCONV
.PROBE64 V(alias(*)) I(alias(*)) W(alias(*)) D(alias(*)) NOISE(alias(*)) 
.INC "..\SCHEMATIC1.net" 



**** INCLUDING SCHEMATIC1.net ****
* source APPLICATION13
V_V1         N00167 0 DC 0Vdc AC 10Vac 
R_R1         N00174 N00167  500 TC=0,0 
C_C1         0 N00174  0.32uF  TC=0,0 
C_C2         0 N00523  0.199uF  TC=0,0 
V_V2         N00479 0 DC 0Vdc AC 10Vac 
R_R2         N00523 N00479  200 TC=0,0 
C_C3         N007220 N006781  0.01uF  TC=0,0 
V_V3         N00662 0 DC 0Vdc AC 10Vac 
R_R3         N006781 N00662  3.8 TC=0,0 
L_L1         N007220 N00877  0.12mH  
R_R4         0 N00877  3.8 TC=0,0 
V_V4         N01140 0 DC 0Vdc AC 10Vac 
R_R5         N011161 N01140  1 TC=0,0 
R_R6         0 N01148  20 TC=0,0 
C_C4         N011000 N011161  0.4uF  TC=0,0 
L_L2         N011000 N01148  1mH  

**** RESUMING Application13.cir ****
.END

**** 05/15/20 14:50:09 ******* PSpice Lite (March 2016) ******* ID# 10813 ****

 ** Profile: "SCHEMATIC1-Application13"  [ C:\Users\seongjun\Desktop\Program\Pspice\Application13-PSpiceFiles\SCHEMATIC1\Application1


 ****     SMALL SIGNAL BIAS SOLUTION       TEMPERATURE =   27.000 DEG C


******************************************************************************



 NODE   VOLTAGE     NODE   VOLTAGE     NODE   VOLTAGE     NODE   VOLTAGE


(N00167)    0.0000 (N00174)    0.0000 (N00479)    0.0000 (N00523)    0.0000     

(N00662)    0.0000 (N00877)    0.0000 (N01140)    0.0000 (N01148)    0.0000     

(N006781)    0.0000                   (N007220)    0.0000                       

(N011000)    0.0000                   (N011161)    0.0000                   




    VOLTAGE SOURCE CURRENTS
    NAME         CURRENT

    V_V1         0.000E+00
    V_V2         0.000E+00
    V_V3         0.000E+00
    V_V4         0.000E+00

    TOTAL POWER DISSIPATION   0.00E+00  WATTS



          JOB CONCLUDED

**** 05/15/20 14:50:09 ******* PSpice Lite (March 2016) ******* ID# 10813 ****

 ** Profile: "SCHEMATIC1-Application13"  [ C:\Users\seongjun\Desktop\Program\Pspice\Application13-PSpiceFiles\SCHEMATIC1\Application1


 ****     JOB STATISTICS SUMMARY


******************************************************************************



  Total job time (using Solver 1)   =         .06
