
**** 05/15/20 19:44:02 ******* PSpice Lite (March 2016) ******* ID# 10813 ****

 ** Profile: "SCHEMATIC1-Aplication10"  [ C:\Users\seongjun\Desktop\Program\Pspice\application10-pspicefiles\schematic1\aplication10.


 ****     CIRCUIT DESCRIPTION


******************************************************************************




** Creating circuit file "Aplication10.cir" 
** WARNING: THIS AUTOMATICALLY GENERATED FILE MAY BE OVERWRITTEN BY SUBSEQUENT SIMULATIONS

*Libraries: 
* Profile Libraries :
* Local Libraries :
* From [PSPICE NETLIST] section of C:\Users\seongjun\AppData\Roaming\SPB_Data\cdssetup\OrCAD_PSpice\17.2.0\PSpice.ini file:
.lib "nomd.lib" 

*Analysis directives: 
.AC DEC 100 100 10k
.OPTIONS ADVCONV
.PROBE64 V(alias(*)) I(alias(*)) W(alias(*)) D(alias(*)) NOISE(alias(*)) 
.INC "..\SCHEMATIC1.net" 



**** INCLUDING SCHEMATIC1.net ****
* source APPLICATION10
V_V1         N00172 0  AC 10
+SIN 0 10 1000 0 0 0
L_L1         0 N00186  1.7mH  
R_R1         N00172 N00179  5 TC=0,0 
C_C1         N00186 N00179  17uF  TC=0,0 
R_R2         N00310 0  0.001n TC=0,0 
L_L2         0 0  1.7mH  
C_C2         0 0  17uF  TC=0,0 
V_V2         N00310 0  AC 10
+SIN 0 10 1000 0 0 0
R_R3         0 0  10 TC=0,0 

**** RESUMING Aplication10.cir ****
.END

ERROR(ORPSIM-15143): Voltage source and/or inductor loop involving L_L2. You may break the loop by adding a series resistance
