
**** 05/15/20 19:44:41 ******* PSpice Lite (March 2016) ******* ID# 10813 ****

 ** Profile: "SCHEMATIC1-Aplication10"  [ C:\Users\seongjun\Desktop\Program\Pspice\application10-pspicefiles\schematic1\aplication10.


 ****     CIRCUIT DESCRIPTION


******************************************************************************




** Creating circuit file "Aplication10.cir" 
** WARNING: THIS AUTOMATICALLY GENERATED FILE MAY BE OVERWRITTEN BY SUBSEQUENT SIMULATIONS

*Libraries: 
* Profile Libraries :
* Local Libraries :
* From [PSPICE NETLIST] section of C:\Users\seongjun\AppData\Roaming\SPB_Data\cdssetup\OrCAD_PSpice\17.2.0\PSpice.ini file:
.lib "nomd.lib" 

*Analysis directives: 
.AC DEC 100 100 10k
.OPTIONS ADVCONV
.PROBE64 V(alias(*)) I(alias(*)) W(alias(*)) D(alias(*)) NOISE(alias(*)) 
.INC "..\SCHEMATIC1.net" 



**** INCLUDING SCHEMATIC1.net ****
* source APPLICATION10
V_V1         N00172 0  AC 10
+SIN 0 10 1000 0 0 0
L_L1         0 N00186  1.7mH  
R_R1         N00172 N00179  5 TC=0,0 
C_C1         N00186 N00179  17uF  TC=0,0 
R_R2         N00310 N00318  0.001n TC=0,0 
L_L2         0 N00318  1.7mH  
C_C2         0 N00318  17uF  TC=0,0 
V_V2         N00310 0  AC 10
+SIN 0 10 1000 0 0 0
R_R3         0 N00318  10 TC=0,0 

**** RESUMING Aplication10.cir ****
.END

**** 05/15/20 19:44:41 ******* PSpice Lite (March 2016) ******* ID# 10813 ****

 ** Profile: "SCHEMATIC1-Aplication10"  [ C:\Users\seongjun\Desktop\Program\Pspice\application10-pspicefiles\schematic1\aplication10.


 ****     SMALL SIGNAL BIAS SOLUTION       TEMPERATURE =   27.000 DEG C


******************************************************************************



 NODE   VOLTAGE     NODE   VOLTAGE     NODE   VOLTAGE     NODE   VOLTAGE


(N00172)    0.0000 (N00179)    0.0000 (N00186)    0.0000 (N00310)    0.0000     

(N00318)    0.0000 




    VOLTAGE SOURCE CURRENTS
    NAME         CURRENT

    V_V1         0.000E+00
    V_V2         0.000E+00

    TOTAL POWER DISSIPATION   0.00E+00  WATTS



          JOB CONCLUDED

**** 05/15/20 19:44:41 ******* PSpice Lite (March 2016) ******* ID# 10813 ****

 ** Profile: "SCHEMATIC1-Aplication10"  [ C:\Users\seongjun\Desktop\Program\Pspice\application10-pspicefiles\schematic1\aplication10.


 ****     JOB STATISTICS SUMMARY


******************************************************************************



  Total job time (using Solver 1)   =         .05
