
**** 05/14/20 20:22:35 ******* PSpice Lite (March 2016) ******* ID# 10813 ****

 ** Profile: "SCHEMATIC1-Aplication2"  [ C:\Users\seongjun\Desktop\Program\Pspice\Application2-PSpiceFiles\SCHEMATIC1\Aplication2.sim


 ****     CIRCUIT DESCRIPTION


******************************************************************************




** Creating circuit file "Aplication2.cir" 
** WARNING: THIS AUTOMATICALLY GENERATED FILE MAY BE OVERWRITTEN BY SUBSEQUENT SIMULATIONS

*Libraries: 
* Profile Libraries :
* Local Libraries :
* From [PSPICE NETLIST] section of C:\Users\seongjun\AppData\Roaming\SPB_Data\cdssetup\OrCAD_PSpice\17.2.0\PSpice.ini file:
.lib "nomd.lib" 

*Analysis directives: 
.DC LIN PARAM RX 0.1 100 0.1 
.OPTIONS ADVCONV
.PROBE64 V(alias(*)) I(alias(*)) W(alias(*)) D(alias(*)) NOISE(alias(*)) 
.INC "..\SCHEMATIC1.net" 



**** INCLUDING SCHEMATIC1.net ****
* source APPLICATION2
R_R1         N00288 N00296  1 TC=0,0 
V_V1         N00288 0 10Vdc
R_R2         0 N00296  {R} TC=0,0 
R_R3         N00487 N00495  10 TC=0,0 
R_R5         0 N00495  {RX} TC=0,0 
V_V2         N00487 0 10Vdc
R_R4         0 N00495  15 TC=0,0 
.PARAM  rx=10 r=5

**** RESUMING Aplication2.cir ****
.END


          JOB CONCLUDED

**** 05/14/20 20:22:35 ******* PSpice Lite (March 2016) ******* ID# 10813 ****

 ** Profile: "SCHEMATIC1-Aplication2"  [ C:\Users\seongjun\Desktop\Program\Pspice\Application2-PSpiceFiles\SCHEMATIC1\Aplication2.sim


 ****     JOB STATISTICS SUMMARY


******************************************************************************



  Total job time (using Solver 1)   =         .13
