
**** 04/09/20 07:17:35 ******* PSpice Lite (March 2016) ******* ID# 10813 ****

 ** Profile: "SCHEMATIC1-Basic5_Simul"  [ C:\Users\seongjun\Desktop\Program\Pspice\Basic5-PSpiceFiles\SCHEMATIC1\Basic5_Simul.sim ] 


 ****     CIRCUIT DESCRIPTION


******************************************************************************




** Creating circuit file "Basic5_Simul.cir" 
** WARNING: THIS AUTOMATICALLY GENERATED FILE MAY BE OVERWRITTEN BY SUBSEQUENT SIMULATIONS

*Libraries: 
* Profile Libraries :
* Local Libraries :
* From [PSPICE NETLIST] section of C:\Users\seongjun\AppData\Roaming\SPB_Data\cdssetup\OrCAD_PSpice\17.2.0\PSpice.ini file:
.lib "nomd.lib" 

*Analysis directives: 
.TRAN  0 6m 0 1u 
.OPTIONS ADVCONV
.PROBE64 V(alias(*)) I(alias(*)) W(alias(*)) D(alias(*)) NOISE(alias(*)) 
.INC "..\SCHEMATIC1.net" 



**** INCLUDING SCHEMATIC1.net ****
* source BASIC5
R_R1         N01353 N01363  1k TC=0,0 
V_V1         N01353 0  AC 1
+SIN 0 1 1k 0 0 0
R_R2         N01363 0  1k TC=0,0 
C_C1         0 N01363  1n  TC=0,0 

**** RESUMING Basic5_Simul.cir ****
.END

**** 04/09/20 07:17:35 ******* PSpice Lite (March 2016) ******* ID# 10813 ****

 ** Profile: "SCHEMATIC1-Basic5_Simul"  [ C:\Users\seongjun\Desktop\Program\Pspice\Basic5-PSpiceFiles\SCHEMATIC1\Basic5_Simul.sim ] 


 ****     INITIAL TRANSIENT SOLUTION       TEMPERATURE =   27.000 DEG C


******************************************************************************



 NODE   VOLTAGE     NODE   VOLTAGE     NODE   VOLTAGE     NODE   VOLTAGE


(N01353)    0.0000 (N01363)    0.0000 




    VOLTAGE SOURCE CURRENTS
    NAME         CURRENT

    V_V1         0.000E+00

    TOTAL POWER DISSIPATION   0.00E+00  WATTS



          JOB CONCLUDED

**** 04/09/20 07:17:35 ******* PSpice Lite (March 2016) ******* ID# 10813 ****

 ** Profile: "SCHEMATIC1-Basic5_Simul"  [ C:\Users\seongjun\Desktop\Program\Pspice\Basic5-PSpiceFiles\SCHEMATIC1\Basic5_Simul.sim ] 


 ****     JOB STATISTICS SUMMARY


******************************************************************************



  Total job time (using Solver 1)   =         .05
