
**** 04/09/20 05:45:41 ******* PSpice Lite (March 2016) ******* ID# 10813 ****

 ** Profile: "SCHEMATIC1-Basic2_Simul"  [ C:\Users\seongjun\Desktop\Program\Pspice\Basic2-PSpiceFiles\SCHEMATIC1\Basic2_Simul.sim ] 


 ****     CIRCUIT DESCRIPTION


******************************************************************************




** Creating circuit file "Basic2_Simul.cir" 
** WARNING: THIS AUTOMATICALLY GENERATED FILE MAY BE OVERWRITTEN BY SUBSEQUENT SIMULATIONS

*Libraries: 
* Profile Libraries :
* Local Libraries :
* From [PSPICE NETLIST] section of C:\Users\seongjun\AppData\Roaming\SPB_Data\cdssetup\OrCAD_PSpice\17.2.0\PSpice.ini file:
.lib "nomd.lib" 

*Analysis directives: 
.DC LIN V_V1 0 12 1m 
.OPTIONS ADVCONV
.PROBE64 V(alias(*)) I(alias(*)) W(alias(*)) D(alias(*)) NOISE(alias(*)) 
.INC "..\SCHEMATIC1.net" 



**** INCLUDING SCHEMATIC1.net ****
* source BASIC2
R_R1         N00329 N00339  1k TC=0,0 
V_V1         N00329 0 20Vdc
R_R3         N00339 0  1k TC=0,0 
R_R2         N00339 0  1k TC=0,0 

**** RESUMING Basic2_Simul.cir ****
.END


          JOB CONCLUDED

**** 04/09/20 05:45:41 ******* PSpice Lite (March 2016) ******* ID# 10813 ****

 ** Profile: "SCHEMATIC1-Basic2_Simul"  [ C:\Users\seongjun\Desktop\Program\Pspice\Basic2-PSpiceFiles\SCHEMATIC1\Basic2_Simul.sim ] 


 ****     JOB STATISTICS SUMMARY


******************************************************************************



  Total job time (using Solver 1)   =         .09
