
**** 05/14/20 20:12:32 ******* PSpice Lite (March 2016) ******* ID# 10813 ****

 ** Profile: "SCHEMATIC1-Application1"  [ C:\Users\seongjun\Desktop\Program\Pspice\Application1-PSpiceFiles\SCHEMATIC1\Application1.s


 ****     CIRCUIT DESCRIPTION


******************************************************************************




** Creating circuit file "Application1.cir" 
** WARNING: THIS AUTOMATICALLY GENERATED FILE MAY BE OVERWRITTEN BY SUBSEQUENT SIMULATIONS

*Libraries: 
* Profile Libraries :
* Local Libraries :
* From [PSPICE NETLIST] section of C:\Users\seongjun\AppData\Roaming\SPB_Data\cdssetup\OrCAD_PSpice\17.2.0\PSpice.ini file:
.lib "nomd.lib" 

*Analysis directives: 
.DC LIN PARAM R 0.1 20 0.1 
.OPTIONS ADVCONV
.PROBE64 V(alias(*)) I(alias(*)) W(alias(*)) D(alias(*)) NOISE(alias(*)) 
.INC "..\SCHEMATIC1.net" 



**** INCLUDING SCHEMATIC1.net ****
* source APPLICATION1
V_V1         N00133 0 10Vdc
R_R2         0 N00140  {R} TC=0,0 
R_R1         N00133 N00140  1 TC=0,0 
.PARAM  r=5

**** RESUMING Application1.cir ****
.END


          JOB CONCLUDED

**** 05/14/20 20:12:32 ******* PSpice Lite (March 2016) ******* ID# 10813 ****

 ** Profile: "SCHEMATIC1-Application1"  [ C:\Users\seongjun\Desktop\Program\Pspice\Application1-PSpiceFiles\SCHEMATIC1\Application1.s


 ****     JOB STATISTICS SUMMARY


******************************************************************************



  Total job time (using Solver 1)   =        0.00
