
**** 04/09/20 06:50:28 ******* PSpice Lite (March 2016) ******* ID# 10813 ****

 ** Profile: "SCHEMATIC1-Basic3_Simul"  [ C:\Users\seongjun\Desktop\Program\Pspice\Basic3-PSpiceFiles\SCHEMATIC1\Basic3_Simul.sim ] 


 ****     CIRCUIT DESCRIPTION


******************************************************************************




** Creating circuit file "Basic3_Simul.cir" 
** WARNING: THIS AUTOMATICALLY GENERATED FILE MAY BE OVERWRITTEN BY SUBSEQUENT SIMULATIONS

*Libraries: 
* Profile Libraries :
* Local Libraries :
* From [PSPICE NETLIST] section of C:\Users\seongjun\AppData\Roaming\SPB_Data\cdssetup\OrCAD_PSpice\17.2.0\PSpice.ini file:
.lib "nomd.lib" 

*Analysis directives: 
.AC DEC 1000 1k 10mega
.OPTIONS ADVCONV
.PROBE64 V(alias(*)) I(alias(*)) W(alias(*)) D(alias(*)) NOISE(alias(*)) 
.INC "..\SCHEMATIC1.net" 



**** INCLUDING SCHEMATIC1.net ****
* source BASIC3
R_R1         N00569 N00579  1k TC=0,0 
R_R2         N00579 0  1k TC=0,0 
V_V1         N00569 0 DC 0Vdc AC 10Vac 
C_C1         0 N00579  1n  TC=0,0 

**** RESUMING Basic3_Simul.cir ****
.END

**** 04/09/20 06:50:28 ******* PSpice Lite (March 2016) ******* ID# 10813 ****

 ** Profile: "SCHEMATIC1-Basic3_Simul"  [ C:\Users\seongjun\Desktop\Program\Pspice\Basic3-PSpiceFiles\SCHEMATIC1\Basic3_Simul.sim ] 


 ****     SMALL SIGNAL BIAS SOLUTION       TEMPERATURE =   27.000 DEG C


******************************************************************************



 NODE   VOLTAGE     NODE   VOLTAGE     NODE   VOLTAGE     NODE   VOLTAGE


(N00569)    0.0000 (N00579)    0.0000 




    VOLTAGE SOURCE CURRENTS
    NAME         CURRENT

    V_V1         0.000E+00

    TOTAL POWER DISSIPATION   0.00E+00  WATTS



          JOB CONCLUDED

**** 04/09/20 06:50:28 ******* PSpice Lite (March 2016) ******* ID# 10813 ****

 ** Profile: "SCHEMATIC1-Basic3_Simul"  [ C:\Users\seongjun\Desktop\Program\Pspice\Basic3-PSpiceFiles\SCHEMATIC1\Basic3_Simul.sim ] 


 ****     JOB STATISTICS SUMMARY


******************************************************************************



  Total job time (using Solver 1)   =         .03
